/*--------------------------------*- C++ -*----------------------------------*\
| =========                 |                                                 |
| \\      /  F ield         | OpenFOAM: The Open Source CFD Toolbox           |
|  \\    /   O peration     | Version:  v2212                                 |
|   \\  /    A nd           | Website:  www.openfoam.com                      |
|    \\/     M anipulation  |                                                 |
\*---------------------------------------------------------------------------*/
FoamFile
{
    version     2.0;
    format      ascii;
    class       dictionary;
    object      chtSOFCSpecieProperties;
}
// * * * * * * * * * * * * * * * * * * * * * * * * * * * * * * * * * * * * * //

H2
{
    specie
    {
        molWeight       2.01594;
        nElectrons      2;
        rSign		-1;
        hForm		0;
        sForm		130.680;
    }
}

H2O
{
    specie
    {
        molWeight       18.01534;
        nElectrons      2;
        rSign		1;
        hForm		-241.8349e3;
        sForm		188.835;
    }
}


// ************************************************************************* //
