/*--------------------------------*- C++ -*----------------------------------*\
| =========                 |                                                 |
| \\      /  F ield         | OpenFOAM: The Open Source CFD Toolbox           |
|  \\    /   O peration     | Version:  v2212                                 |
|   \\  /    A nd           | Website:  www.openfoam.com                      |
|    \\/     M anipulation  |                                                 |
\*---------------------------------------------------------------------------*/
FoamFile
{
    version     2.0;
    format      ascii;
    class       dictionary;
    object      fvOptions;
}
// * * * * * * * * * * * * * * * * * * * * * * * * * * * * * * * * * * * * * //

porousZone2 
{
    type           explicitPorositySource;

    explicitPorositySourceCoeffs
    {
        type           DarcyForchheimer;
        selectionMode  cellZone;
        cellZone       anode; // Specify the name of the cellZone

        DarcyForchheimerCoeffs
        {
            // Negative coeffs are multiplied by largest positive coeff,
            // taking the magnitude, e.g. for -1000, coeff = |1e7*-1000| = 1e10

            d          (1e12 1e12 1e12);
            f          (0 0 0);

            coordinateSystem 
            {
                origin (0 0 0);
                rotation none;
            }
        }

    }
}

energySource
{
        type            scalarSemiImplicitSource;

        timeStart       0.0;
        duration        1.0;
        selectionMode   cellZone;
        cellZone        anode;

        volumeMode      specific;
        sources
        {
            h           (2e7 0);  // kg/m/s^3
        }
}

//************************************************************************** //
