/*--------------------------------*- C++ -*----------------------------------*\
| =========                 |                                                 |
| \\      /  F ield         | OpenFOAM: The Open Source CFD Toolbox           |
|  \\    /   O peration     | Version:  v2212                                 |
|   \\  /    A nd           | Website:  www.openfoam.com                      |
|    \\/     M anipulation  |                                                 |
\*---------------------------------------------------------------------------*/
FoamFile
{
    version     2.0;
    format      ascii;
    class       dictionary;
    object      chtSOFCSpecieProperties;
}
// * * * * * * * * * * * * * * * * * * * * * * * * * * * * * * * * * * * * * //

N2
{
    specie
    {
        molWeight       28.0134;
        nElectrons      0;
        rSign		0;
        hForm		0;
        sForm		191.609;
    } 
}

O2
{
    specie
    {
        molWeight       31.9988;
        nElectrons      4;
        rSign		-1;
        hForm		205.152;
        sForm		191.609;
    }
}



// ************************************************************************* //
