/*--------------------------------*- C++ -*----------------------------------*\
| =========                 |                                                 |
| \\      /  F ield         | OpenFOAM: The Open Source CFD Toolbox           |
|  \\    /   O peration     | Version:  v2212                                 |
|   \\  /    A nd           | Website:  www.openfoam.com                      |
|    \\/     M anipulation  |                                                 |
\*---------------------------------------------------------------------------*/
FoamFile
{
    version     2.0;
    format      ascii;
    class       dictionary;
    object      blockMeshDict;
}
// * * * * * * * * * * * * * * * * * * * * * * * * * * * * * * * * * * * * * //

scale   0.001;

vertices
(
// ... From Bottom To Top

// Interconnect0
	( 0 0 0) // 0
	(100 0 0) // 1
	(100 100 0) // 2
	( 0 100 0) // 3

// Interconnect0_to_Air
	( 0 0 3.5) // 4
	(100 0 3.5) // 5
	(100 100 3.5) // 6
	( 0 100 3.5) // 7

// Air_to_cathode
	( 0 0 5.0) // 8
	(100 0 5.0) // 9
	(100 100 5.0) //10
	( 0 100 5.0) //11

// cathode_to_Electrolyte
	( 0 0 5.285) //12
	(100 0 5.285) //13
	(100 100 5.285) //14
	( 0 100 5.285) //15

// Electrolyte_to_anode
	( 0 0 5.293) //16
	(100 0 5.293) //17
	(100 100 5.293) //18
	( 0 100 5.293) //19

// anode_to_Fuel
	( 0 0 6.3) //20
	(100 0 6.3) //21
	(100 100 6.3) //22
	( 0 100 6.3) //23

// fuel_to_Interconnect1
	( 0 0 7.8) //24
	(100 0 7.8) //25
	(100 100 7.8) //26
	( 0 100 7.8) //27

// Interconnect1
	( 0 0 11.3) //28
	(100 0 11.3) //29
	(100 100 11.3) //30
	( 0 100 11.3) //31
);

blocks
(
// Interconnect0
	hex (0 1 2 3 4 5 6 7) (200 200 5) simpleGrading (1 1 1)
// air
	hex (4 5 6 7 8 9 10 11) (200 200 10) simpleGrading (1 1 1)
// cathode
	hex (8 9 10 11 12 13 14 15) (200 200 8) simpleGrading (1 1 1)
// electrolyte
	hex (12 13 14 15 16 17 18 19) (200 200 1) simpleGrading (1 1 1)
// anode
	hex (16 17 18 19 20 21 22 23) (200 200 13) simpleGrading (1 1 1)
// fuel
	hex (20 21 22 23 24 25 26 27) (200 200 10) simpleGrading (1 1 1)
// Interconnect1
	hex (24 25 26 27 28 29 30 31) (200 200 5) simpleGrading (1 1 1)
);

edges
(
);

boundary
(
//Interconnect0
    interconnect0Bottom
    {
        type patch;
        faces
        (
            (0 3 2 1)
        );
    }
    interconnect0Sides
    {
    	type patch;
    	faces
    (
	    (0 1 5 4)
	    (3 7 6 2)
	    (0 4 7 3)
	    (1 2 6 5)
    );
    }

//Air
    airInlet
    {
    	type patch;
    	faces
    (
	    (4 5 9 8)
    );
    }
    airOutlet
    {
    	type patch;
    	faces
    (
	    (7 11 10 6)
    );
    }
    airSides
    {
    	type patch;
    	faces
    (
	    (4 8 11 7)
	    (5 6 10 9)
    );
    }

//Cathode
    cathodeSides
    {
    	type patch;
    	faces
    (
	    (8 9 13 12)
	    (11 15 14 10)
	    (8 12 15 11)
	    (9 10 14 13)
    );
    }

//Electrolyte
    electrolyteSides
    {
    	type patch;
    	faces
    (
	   (12 13 17 16)
	   (15 19 18 14)
	   (12 16 19 15)
	   (13 14 18 17)
    );
    }
    
//Anode
    anodeSides
    {
    	type patch;
    	faces
    (
	   (16 17 21 20)
	   (19 23 22 18)
	   (16 20 23 19)
	   (17 18 22 21)
    );
    }
    
//Fuel    
    fuelInlet
    {
    	type patch;
    	faces
    (
	    (20 24 27 23)
    );
    }
    fuelOutlet
    {
    	type patch;
    	faces
    (
	    (21 22 26 25)
    );
    }
    fuelSides
    {
    	type patch;
    	faces
    (
	    (20 21 25 24)
	    (23 27 26 22)
    );
    }
    
//Interconnect1
    interconnect1Top
    {
        type patch;
        faces
        (
            (28 29 30 31)
        );
    }
    interconnect1Sides
    {
    	type patch;
    	faces
    (
	    (24 28 31 27)
	    (25 26 30 29)
	    (24 25 29 28)
	    (27 31 30 26)
    );
    }

);

mergePatchPairs
(
);


// ************************************************************************* //
